<?xml version="1.0" encoding="utf-8"?>
<!DOCTYPE population SYSTEM "http://www.matsim.org/files/dtd/population_v6.dtd">

<population>



<!-- ====================================================================== -->

	<person id="p0">
		<plan selected="yes">
			<activity type="home" link="565" end_time="07:40:48" >
			</activity>
			<leg mode="car">
			</leg>
			<activity type="work" link="54" end_time="17:54:44" >
			</activity>
			<leg mode="car">
			</leg>
			<activity type="home" link="565" >
			</activity>
		</plan>

	</person>

<!-- ====================================================================== -->

	<person id="p1">
		<plan selected="yes">
			<activity type="home" link="44" end_time="08:45:05" >
			</activity>
			<leg mode="car">
			</leg>
			<activity type="work" link="823" end_time="18:48:38" >
			</activity>
			<leg mode="car">
			</leg>
			<activity type="home" link="44" >
			</activity>
		</plan>

	</person>

<!-- ====================================================================== -->

	<person id="p10">
		<plan selected="yes">
			<activity type="home" link="238" end_time="07:50:23" >
			</activity>
			<leg mode="car">
			</leg>
			<activity type="work" link="392" end_time="17:25:37" >
			</activity>
			<leg mode="car">
			</leg>
			<activity type="home" link="238" >
			</activity>
		</plan>

	</person>

<!-- ====================================================================== -->

	<person id="p11">
		<plan selected="yes">
			<activity type="home" link="109" end_time="08:40:07" >
			</activity>
			<leg mode="car">
			</leg>
			<activity type="work" link="772" end_time="18:35:35" >
			</activity>
			<leg mode="car">
			</leg>
			<activity type="home" link="109" >
			</activity>
		</plan>

	</person>

<!-- ====================================================================== -->

	<person id="p12">
		<plan selected="yes">
			<activity type="home" link="118" end_time="08:33:13" >
			</activity>
			<leg mode="car">
			</leg>
			<activity type="work" link="798" end_time="17:47:20" >
			</activity>
			<leg mode="car">
			</leg>
			<activity type="home" link="118" >
			</activity>
		</plan>

	</person>

<!-- ====================================================================== -->

	<person id="p13">
		<plan selected="yes">
			<activity type="home" link="292" end_time="07:19:20" >
			</activity>
			<leg mode="car">
			</leg>
			<activity type="work" link="342" end_time="18:40:10" >
			</activity>
			<leg mode="car">
			</leg>
			<activity type="home" link="292" >
			</activity>
		</plan>

	</person>

<!-- ====================================================================== -->

	<person id="p14">
		<plan selected="yes">
			<activity type="home" link="291" end_time="08:24:21" >
			</activity>
			<leg mode="car">
			</leg>
			<activity type="work" link="175" end_time="18:40:03" >
			</activity>
			<leg mode="car">
			</leg>
			<activity type="home" link="291" >
			</activity>
		</plan>

	</person>

<!-- ====================================================================== -->

	<person id="p15">
		<plan selected="yes">
			<activity type="home" link="501" end_time="08:52:32" >
			</activity>
			<leg mode="car">
			</leg>
			<activity type="work" link="783" end_time="18:50:01" >
			</activity>
			<leg mode="car">
			</leg>
			<activity type="home" link="501" >
			</activity>
		</plan>

	</person>

<!-- ====================================================================== -->

	<person id="p16">
		<plan selected="yes">
			<activity type="home" link="264" end_time="07:26:38" >
			</activity>
			<leg mode="car">
			</leg>
			<activity type="work" link="348" end_time="18:35:19" >
			</activity>
			<leg mode="car">
			</leg>
			<activity type="home" link="264" >
			</activity>
		</plan>

	</person>

<!-- ====================================================================== -->

	<person id="p17">
		<plan selected="yes">
			<activity type="home" link="69" end_time="08:33:10" >
			</activity>
			<leg mode="car">
			</leg>
			<activity type="work" link="457" end_time="18:51:41" >
			</activity>
			<leg mode="car">
			</leg>
			<activity type="home" link="69" >
			</activity>
		</plan>

	</person>

<!-- ====================================================================== -->

	<person id="p18">
		<plan selected="yes">
			<activity type="home" link="473" end_time="08:26:13" >
			</activity>
			<leg mode="car">
			</leg>
			<activity type="work" link="568" end_time="17:28:53" >
			</activity>
			<leg mode="car">
			</leg>
			<activity type="home" link="473" >
			</activity>
		</plan>

	</person>

<!-- ====================================================================== -->

	<person id="p19">
		<plan selected="yes">
			<activity type="home" link="6" end_time="08:37:05" >
			</activity>
			<leg mode="car">
			</leg>
			<activity type="work" link="287" end_time="18:21:33" >
			</activity>
			<leg mode="car">
			</leg>
			<activity type="home" link="6" >
			</activity>
		</plan>

	</person>

<!-- ====================================================================== -->

	<person id="p2">
		<plan selected="yes">
			<activity type="home" link="127" end_time="07:33:02" >
			</activity>
			<leg mode="car">
			</leg>
			<activity type="work" link="716" end_time="18:25:02" >
			</activity>
			<leg mode="car">
			</leg>
			<activity type="home" link="127" >
			</activity>
		</plan>

	</person>

<!-- ====================================================================== -->

	<person id="p20">
		<plan selected="yes">
			<activity type="home" link="613" end_time="08:03:23" >
			</activity>
			<leg mode="car">
			</leg>
			<activity type="work" link="149" end_time="18:39:02" >
			</activity>
			<leg mode="car">
			</leg>
			<activity type="home" link="613" >
			</activity>
		</plan>

	</person>

<!-- ====================================================================== -->

	<person id="p21">
		<plan selected="yes">
			<activity type="home" link="25" end_time="07:35:09" >
			</activity>
			<leg mode="car">
			</leg>
			<activity type="work" link="166" end_time="17:52:24" >
			</activity>
			<leg mode="car">
			</leg>
			<activity type="home" link="25" >
			</activity>
		</plan>

	</person>

<!-- ====================================================================== -->

	<person id="p22">
		<plan selected="yes">
			<activity type="home" link="195" end_time="08:42:27" >
			</activity>
			<leg mode="car">
			</leg>
			<activity type="work" link="78" end_time="17:41:36" >
			</activity>
			<leg mode="car">
			</leg>
			<activity type="home" link="195" >
			</activity>
		</plan>

	</person>

<!-- ====================================================================== -->

	<person id="p23">
		<plan selected="yes">
			<activity type="home" link="192" end_time="07:45:59" >
			</activity>
			<leg mode="car">
			</leg>
			<activity type="work" link="612" end_time="18:47:03" >
			</activity>
			<leg mode="car">
			</leg>
			<activity type="home" link="192" >
			</activity>
		</plan>

	</person>

<!-- ====================================================================== -->

	<person id="p24">
		<plan selected="yes">
			<activity type="home" link="297" end_time="07:37:56" >
			</activity>
			<leg mode="car">
			</leg>
			<activity type="work" link="801" end_time="17:35:28" >
			</activity>
			<leg mode="car">
			</leg>
			<activity type="home" link="297" >
			</activity>
		</plan>

	</person>

<!-- ====================================================================== -->

	<person id="p25">
		<plan selected="yes">
			<activity type="home" link="119" end_time="08:32:12" >
			</activity>
			<leg mode="car">
			</leg>
			<activity type="work" link="526" end_time="18:13:49" >
			</activity>
			<leg mode="car">
			</leg>
			<activity type="home" link="119" >
			</activity>
		</plan>

	</person>

<!-- ====================================================================== -->

	<person id="p26">
		<plan selected="yes">
			<activity type="home" link="773" end_time="07:45:09" >
			</activity>
			<leg mode="car">
			</leg>
			<activity type="work" link="276" end_time="17:27:26" >
			</activity>
			<leg mode="car">
			</leg>
			<activity type="home" link="773" >
			</activity>
		</plan>

	</person>

<!-- ====================================================================== -->

	<person id="p27">
		<plan selected="yes">
			<activity type="home" link="529" end_time="08:27:26" >
			</activity>
			<leg mode="car">
			</leg>
			<activity type="work" link="370" end_time="17:55:04" >
			</activity>
			<leg mode="car">
			</leg>
			<activity type="home" link="529" >
			</activity>
		</plan>

	</person>

<!-- ====================================================================== -->

	<person id="p28">
		<plan selected="yes">
			<activity type="home" link="830" end_time="08:13:51" >
			</activity>
			<leg mode="car">
			</leg>
			<activity type="work" link="453" end_time="17:24:30" >
			</activity>
			<leg mode="car">
			</leg>
			<activity type="home" link="830" >
			</activity>
		</plan>

	</person>

<!-- ====================================================================== -->

	<person id="p29">
		<plan selected="yes">
			<activity type="home" link="772" end_time="07:03:26" >
			</activity>
			<leg mode="car">
			</leg>
			<activity type="work" link="204" end_time="18:14:39" >
			</activity>
			<leg mode="car">
			</leg>
			<activity type="home" link="772" >
			</activity>
		</plan>

	</person>

<!-- ====================================================================== -->

	<person id="p3">
		<plan selected="yes">
			<activity type="home" link="391" end_time="07:07:56" >
			</activity>
			<leg mode="car">
			</leg>
			<activity type="work" link="373" end_time="18:00:32" >
			</activity>
			<leg mode="car">
			</leg>
			<activity type="home" link="391" >
			</activity>
		</plan>

	</person>

<!-- ====================================================================== -->

	<person id="p30">
		<plan selected="yes">
			<activity type="home" link="316" end_time="08:42:38" >
			</activity>
			<leg mode="car">
			</leg>
			<activity type="work" link="361" end_time="17:28:43" >
			</activity>
			<leg mode="car">
			</leg>
			<activity type="home" link="316" >
			</activity>
		</plan>

	</person>

<!-- ====================================================================== -->

	<person id="p31">
		<plan selected="yes">
			<activity type="home" link="487" end_time="08:45:22" >
			</activity>
			<leg mode="car">
			</leg>
			<activity type="work" link="669" end_time="18:52:03" >
			</activity>
			<leg mode="car">
			</leg>
			<activity type="home" link="487" >
			</activity>
		</plan>

	</person>

<!-- ====================================================================== -->

	<person id="p32">
		<plan selected="yes">
			<activity type="home" link="484" end_time="07:25:52" >
			</activity>
			<leg mode="car">
			</leg>
			<activity type="work" link="528" end_time="18:29:32" >
			</activity>
			<leg mode="car">
			</leg>
			<activity type="home" link="484" >
			</activity>
		</plan>

	</person>

<!-- ====================================================================== -->

	<person id="p33">
		<plan selected="yes">
			<activity type="home" link="412" end_time="07:31:12" >
			</activity>
			<leg mode="car">
			</leg>
			<activity type="work" link="35" end_time="18:46:08" >
			</activity>
			<leg mode="car">
			</leg>
			<activity type="home" link="412" >
			</activity>
		</plan>

	</person>

<!-- ====================================================================== -->

	<person id="p34">
		<plan selected="yes">
			<activity type="home" link="505" end_time="08:43:47" >
			</activity>
			<leg mode="car">
			</leg>
			<activity type="work" link="667" end_time="18:27:13" >
			</activity>
			<leg mode="car">
			</leg>
			<activity type="home" link="505" >
			</activity>
		</plan>

	</person>

<!-- ====================================================================== -->

	<person id="p35">
		<plan selected="yes">
			<activity type="home" link="618" end_time="08:32:01" >
			</activity>
			<leg mode="car">
			</leg>
			<activity type="work" link="686" end_time="18:35:23" >
			</activity>
			<leg mode="car">
			</leg>
			<activity type="home" link="618" >
			</activity>
		</plan>

	</person>

<!-- ====================================================================== -->

	<person id="p36">
		<plan selected="yes">
			<activity type="home" link="704" end_time="07:06:18" >
			</activity>
			<leg mode="car">
			</leg>
			<activity type="work" link="547" end_time="18:24:53" >
			</activity>
			<leg mode="car">
			</leg>
			<activity type="home" link="704" >
			</activity>
		</plan>

	</person>

<!-- ====================================================================== -->

	<person id="p37">
		<plan selected="yes">
			<activity type="home" link="216" end_time="08:47:10" >
			</activity>
			<leg mode="car">
			</leg>
			<activity type="work" link="552" end_time="17:20:35" >
			</activity>
			<leg mode="car">
			</leg>
			<activity type="home" link="216" >
			</activity>
		</plan>

	</person>

<!-- ====================================================================== -->

	<person id="p38">
		<plan selected="yes">
			<activity type="home" link="180" end_time="08:18:01" >
			</activity>
			<leg mode="car">
			</leg>
			<activity type="work" link="559" end_time="17:38:19" >
			</activity>
			<leg mode="car">
			</leg>
			<activity type="home" link="180" >
			</activity>
		</plan>

	</person>

<!-- ====================================================================== -->

	<person id="p39">
		<plan selected="yes">
			<activity type="home" link="654" end_time="07:39:02" >
			</activity>
			<leg mode="car">
			</leg>
			<activity type="work" link="49" end_time="18:57:21" >
			</activity>
			<leg mode="car">
			</leg>
			<activity type="home" link="654" >
			</activity>
		</plan>

	</person>

<!-- ====================================================================== -->

	<person id="p4">
		<plan selected="yes">
			<activity type="home" link="120" end_time="08:05:43" >
			</activity>
			<leg mode="car">
			</leg>
			<activity type="work" link="336" end_time="17:43:29" >
			</activity>
			<leg mode="car">
			</leg>
			<activity type="home" link="120" >
			</activity>
		</plan>

	</person>

<!-- ====================================================================== -->

	<person id="p40">
		<plan selected="yes">
			<activity type="home" link="840" end_time="07:12:20" >
			</activity>
			<leg mode="car">
			</leg>
			<activity type="work" link="719" end_time="18:36:50" >
			</activity>
			<leg mode="car">
			</leg>
			<activity type="home" link="840" >
			</activity>
		</plan>

	</person>

<!-- ====================================================================== -->

	<person id="p41">
		<plan selected="yes">
			<activity type="home" link="402" end_time="08:03:50" >
			</activity>
			<leg mode="car">
			</leg>
			<activity type="work" link="520" end_time="17:52:09" >
			</activity>
			<leg mode="car">
			</leg>
			<activity type="home" link="402" >
			</activity>
		</plan>

	</person>

<!-- ====================================================================== -->

	<person id="p42">
		<plan selected="yes">
			<activity type="home" link="516" end_time="08:58:44" >
			</activity>
			<leg mode="car">
			</leg>
			<activity type="work" link="383" end_time="18:47:14" >
			</activity>
			<leg mode="car">
			</leg>
			<activity type="home" link="516" >
			</activity>
		</plan>

	</person>

<!-- ====================================================================== -->

	<person id="p43">
		<plan selected="yes">
			<activity type="home" link="162" end_time="08:56:46" >
			</activity>
			<leg mode="car">
			</leg>
			<activity type="work" link="77" end_time="17:51:21" >
			</activity>
			<leg mode="car">
			</leg>
			<activity type="home" link="162" >
			</activity>
		</plan>

	</person>

<!-- ====================================================================== -->

	<person id="p44">
		<plan selected="yes">
			<activity type="home" link="135" end_time="08:08:49" >
			</activity>
			<leg mode="car">
			</leg>
			<activity type="work" link="450" end_time="18:42:22" >
			</activity>
			<leg mode="car">
			</leg>
			<activity type="home" link="135" >
			</activity>
		</plan>

	</person>

<!-- ====================================================================== -->

	<person id="p45">
		<plan selected="yes">
			<activity type="home" link="336" end_time="07:16:50" >
			</activity>
			<leg mode="car">
			</leg>
			<activity type="work" link="505" end_time="18:43:19" >
			</activity>
			<leg mode="car">
			</leg>
			<activity type="home" link="336" >
			</activity>
		</plan>

	</person>

<!-- ====================================================================== -->

	<person id="p46">
		<plan selected="yes">
			<activity type="home" link="275" end_time="08:15:36" >
			</activity>
			<leg mode="car">
			</leg>
			<activity type="work" link="809" end_time="17:55:45" >
			</activity>
			<leg mode="car">
			</leg>
			<activity type="home" link="275" >
			</activity>
		</plan>

	</person>

<!-- ====================================================================== -->

	<person id="p47">
		<plan selected="yes">
			<activity type="home" link="551" end_time="07:16:38" >
			</activity>
			<leg mode="car">
			</leg>
			<activity type="work" link="507" end_time="18:11:33" >
			</activity>
			<leg mode="car">
			</leg>
			<activity type="home" link="551" >
			</activity>
		</plan>

	</person>

<!-- ====================================================================== -->

	<person id="p48">
		<plan selected="yes">
			<activity type="home" link="264" end_time="07:56:06" >
			</activity>
			<leg mode="car">
			</leg>
			<activity type="work" link="46" end_time="17:22:59" >
			</activity>
			<leg mode="car">
			</leg>
			<activity type="home" link="264" >
			</activity>
		</plan>

	</person>

<!-- ====================================================================== -->

	<person id="p49">
		<plan selected="yes">
			<activity type="home" link="607" end_time="07:23:13" >
			</activity>
			<leg mode="car">
			</leg>
			<activity type="work" link="440" end_time="17:02:54" >
			</activity>
			<leg mode="car">
			</leg>
			<activity type="home" link="607" >
			</activity>
		</plan>

	</person>

<!-- ====================================================================== -->

	<person id="p5">
		<plan selected="yes">
			<activity type="home" link="469" end_time="08:00:26" >
			</activity>
			<leg mode="car">
			</leg>
			<activity type="work" link="588" end_time="17:48:33" >
			</activity>
			<leg mode="car">
			</leg>
			<activity type="home" link="469" >
			</activity>
		</plan>

	</person>

<!-- ====================================================================== -->

	<person id="p50">
		<plan selected="yes">
			<activity type="home" link="173" end_time="08:26:18" >
			</activity>
			<leg mode="car">
			</leg>
			<activity type="work" link="544" end_time="18:33:08" >
			</activity>
			<leg mode="car">
			</leg>
			<activity type="home" link="173" >
			</activity>
		</plan>

	</person>

<!-- ====================================================================== -->

	<person id="p51">
		<plan selected="yes">
			<activity type="home" link="270" end_time="08:28:42" >
			</activity>
			<leg mode="car">
			</leg>
			<activity type="work" link="19" end_time="18:26:31" >
			</activity>
			<leg mode="car">
			</leg>
			<activity type="home" link="270" >
			</activity>
		</plan>

	</person>

<!-- ====================================================================== -->

	<person id="p52">
		<plan selected="yes">
			<activity type="home" link="40" end_time="08:42:30" >
			</activity>
			<leg mode="car">
			</leg>
			<activity type="work" link="454" end_time="18:08:13" >
			</activity>
			<leg mode="car">
			</leg>
			<activity type="home" link="40" >
			</activity>
		</plan>

	</person>

<!-- ====================================================================== -->

	<person id="p53">
		<plan selected="yes">
			<activity type="home" link="487" end_time="08:41:34" >
			</activity>
			<leg mode="car">
			</leg>
			<activity type="work" link="342" end_time="18:18:25" >
			</activity>
			<leg mode="car">
			</leg>
			<activity type="home" link="487" >
			</activity>
		</plan>

	</person>

<!-- ====================================================================== -->

	<person id="p54">
		<plan selected="yes">
			<activity type="home" link="88" end_time="07:46:23" >
			</activity>
			<leg mode="car">
			</leg>
			<activity type="work" link="317" end_time="18:58:43" >
			</activity>
			<leg mode="car">
			</leg>
			<activity type="home" link="88" >
			</activity>
		</plan>

	</person>

<!-- ====================================================================== -->

	<person id="p55">
		<plan selected="yes">
			<activity type="home" link="22" end_time="08:38:31" >
			</activity>
			<leg mode="car">
			</leg>
			<activity type="work" link="723" end_time="18:57:23" >
			</activity>
			<leg mode="car">
			</leg>
			<activity type="home" link="22" >
			</activity>
		</plan>

	</person>

<!-- ====================================================================== -->

	<person id="p56">
		<plan selected="yes">
			<activity type="home" link="24" end_time="08:10:16" >
			</activity>
			<leg mode="car">
			</leg>
			<activity type="work" link="420" end_time="17:58:13" >
			</activity>
			<leg mode="car">
			</leg>
			<activity type="home" link="24" >
			</activity>
		</plan>

	</person>

<!-- ====================================================================== -->

	<person id="p57">
		<plan selected="yes">
			<activity type="home" link="717" end_time="07:26:45" >
			</activity>
			<leg mode="car">
			</leg>
			<activity type="work" link="660" end_time="17:53:37" >
			</activity>
			<leg mode="car">
			</leg>
			<activity type="home" link="717" >
			</activity>
		</plan>

	</person>

<!-- ====================================================================== -->

	<person id="p58">
		<plan selected="yes">
			<activity type="home" link="86" end_time="08:11:06" >
			</activity>
			<leg mode="car">
			</leg>
			<activity type="work" link="29" end_time="18:07:39" >
			</activity>
			<leg mode="car">
			</leg>
			<activity type="home" link="86" >
			</activity>
		</plan>

	</person>

<!-- ====================================================================== -->

	<person id="p59">
		<plan selected="yes">
			<activity type="home" link="333" end_time="07:15:53" >
			</activity>
			<leg mode="car">
			</leg>
			<activity type="work" link="156" end_time="17:21:30" >
			</activity>
			<leg mode="car">
			</leg>
			<activity type="home" link="333" >
			</activity>
		</plan>

	</person>

<!-- ====================================================================== -->

	<person id="p6">
		<plan selected="yes">
			<activity type="home" link="164" end_time="07:07:10" >
			</activity>
			<leg mode="car">
			</leg>
			<activity type="work" link="734" end_time="17:30:58" >
			</activity>
			<leg mode="car">
			</leg>
			<activity type="home" link="164" >
			</activity>
		</plan>

	</person>

<!-- ====================================================================== -->

	<person id="p60">
		<plan selected="yes">
			<activity type="home" link="596" end_time="07:47:11" >
			</activity>
			<leg mode="car">
			</leg>
			<activity type="work" link="174" end_time="18:57:10" >
			</activity>
			<leg mode="car">
			</leg>
			<activity type="home" link="596" >
			</activity>
		</plan>

	</person>

<!-- ====================================================================== -->

	<person id="p61">
		<plan selected="yes">
			<activity type="home" link="665" end_time="07:19:01" >
			</activity>
			<leg mode="car">
			</leg>
			<activity type="work" link="173" end_time="18:38:11" >
			</activity>
			<leg mode="car">
			</leg>
			<activity type="home" link="665" >
			</activity>
		</plan>

	</person>

<!-- ====================================================================== -->

	<person id="p62">
		<plan selected="yes">
			<activity type="home" link="542" end_time="07:56:33" >
			</activity>
			<leg mode="car">
			</leg>
			<activity type="work" link="577" end_time="18:10:45" >
			</activity>
			<leg mode="car">
			</leg>
			<activity type="home" link="542" >
			</activity>
		</plan>

	</person>

<!-- ====================================================================== -->

	<person id="p63">
		<plan selected="yes">
			<activity type="home" link="568" end_time="08:37:33" >
			</activity>
			<leg mode="car">
			</leg>
			<activity type="work" link="564" end_time="18:28:15" >
			</activity>
			<leg mode="car">
			</leg>
			<activity type="home" link="568" >
			</activity>
		</plan>

	</person>

<!-- ====================================================================== -->

	<person id="p64">
		<plan selected="yes">
			<activity type="home" link="78" end_time="08:00:15" >
			</activity>
			<leg mode="car">
			</leg>
			<activity type="work" link="101" end_time="17:45:31" >
			</activity>
			<leg mode="car">
			</leg>
			<activity type="home" link="78" >
			</activity>
		</plan>

	</person>

<!-- ====================================================================== -->

	<person id="p65">
		<plan selected="yes">
			<activity type="home" link="133" end_time="07:26:00" >
			</activity>
			<leg mode="car">
			</leg>
			<activity type="work" link="194" end_time="17:30:16" >
			</activity>
			<leg mode="car">
			</leg>
			<activity type="home" link="133" >
			</activity>
		</plan>

	</person>

<!-- ====================================================================== -->

	<person id="p66">
		<plan selected="yes">
			<activity type="home" link="338" end_time="08:11:05" >
			</activity>
			<leg mode="car">
			</leg>
			<activity type="work" link="550" end_time="18:21:47" >
			</activity>
			<leg mode="car">
			</leg>
			<activity type="home" link="338" >
			</activity>
		</plan>

	</person>

<!-- ====================================================================== -->

	<person id="p67">
		<plan selected="yes">
			<activity type="home" link="634" end_time="07:48:14" >
			</activity>
			<leg mode="car">
			</leg>
			<activity type="work" link="137" end_time="18:59:00" >
			</activity>
			<leg mode="car">
			</leg>
			<activity type="home" link="634" >
			</activity>
		</plan>

	</person>

<!-- ====================================================================== -->

	<person id="p68">
		<plan selected="yes">
			<activity type="home" link="805" end_time="07:21:50" >
			</activity>
			<leg mode="car">
			</leg>
			<activity type="work" link="109" end_time="17:42:39" >
			</activity>
			<leg mode="car">
			</leg>
			<activity type="home" link="805" >
			</activity>
		</plan>

	</person>

<!-- ====================================================================== -->

	<person id="p69">
		<plan selected="yes">
			<activity type="home" link="576" end_time="07:54:03" >
			</activity>
			<leg mode="car">
			</leg>
			<activity type="work" link="320" end_time="17:17:22" >
			</activity>
			<leg mode="car">
			</leg>
			<activity type="home" link="576" >
			</activity>
		</plan>

	</person>

<!-- ====================================================================== -->

	<person id="p7">
		<plan selected="yes">
			<activity type="home" link="623" end_time="08:32:10" >
			</activity>
			<leg mode="car">
			</leg>
			<activity type="work" link="828" end_time="17:32:36" >
			</activity>
			<leg mode="car">
			</leg>
			<activity type="home" link="623" >
			</activity>
		</plan>

	</person>

<!-- ====================================================================== -->

	<person id="p70">
		<plan selected="yes">
			<activity type="home" link="187" end_time="08:14:12" >
			</activity>
			<leg mode="car">
			</leg>
			<activity type="work" link="486" end_time="17:28:57" >
			</activity>
			<leg mode="car">
			</leg>
			<activity type="home" link="187" >
			</activity>
		</plan>

	</person>

<!-- ====================================================================== -->

	<person id="p71">
		<plan selected="yes">
			<activity type="home" link="375" end_time="08:50:19" >
			</activity>
			<leg mode="car">
			</leg>
			<activity type="work" link="674" end_time="18:23:08" >
			</activity>
			<leg mode="car">
			</leg>
			<activity type="home" link="375" >
			</activity>
		</plan>

	</person>

<!-- ====================================================================== -->

	<person id="p72">
		<plan selected="yes">
			<activity type="home" link="751" end_time="08:04:00" >
			</activity>
			<leg mode="car">
			</leg>
			<activity type="work" link="720" end_time="18:30:18" >
			</activity>
			<leg mode="car">
			</leg>
			<activity type="home" link="751" >
			</activity>
		</plan>

	</person>

<!-- ====================================================================== -->

	<person id="p73">
		<plan selected="yes">
			<activity type="home" link="510" end_time="08:21:47" >
			</activity>
			<leg mode="car">
			</leg>
			<activity type="work" link="481" end_time="18:27:17" >
			</activity>
			<leg mode="car">
			</leg>
			<activity type="home" link="510" >
			</activity>
		</plan>

	</person>

<!-- ====================================================================== -->

	<person id="p74">
		<plan selected="yes">
			<activity type="home" link="157" end_time="08:00:41" >
			</activity>
			<leg mode="car">
			</leg>
			<activity type="work" link="769" end_time="17:53:13" >
			</activity>
			<leg mode="car">
			</leg>
			<activity type="home" link="157" >
			</activity>
		</plan>

	</person>

<!-- ====================================================================== -->

	<person id="p75">
		<plan selected="yes">
			<activity type="home" link="729" end_time="08:38:54" >
			</activity>
			<leg mode="car">
			</leg>